*Heading
** Job name: brain-thin2 Model name: Model-1
** Generated by: Abaqus/CAE 2018
*Preprint, echo=NO, model=NO, history=NO, contact=NO
**
** PARTS
**
*Part, name=Part-1
*Node
      1,           0.,         -48.,           0.
      2,           0.,          48.,           0.
      3,           0.,         -25.,           0.
      4,           0.,          25.,           0.
      5,  -5.01736641,  -47.7370491,           0.
      6,  -9.97976112,  -46.9510841,           0.
      7,  -14.8328161,  -45.6507111,           0.
      8,  -19.5233593,  -43.8501816,           0.
      9,         -24.,  -41.5692177,           0.
     10,  -28.2136917,  -38.8328171,           0.
     11,  -32.1182709,  -35.6709518,           0.
     12,  -35.6709518,  -32.1182709,           0.
     13,  -38.8328171,  -28.2136917,           0.
     14,  -41.5692177,         -24.,           0.
     15,  -43.8501816,  -19.5233593,           0.
     16,  -45.6507111,  -14.8328161,           0.
     17,  -46.9510841,  -9.97976112,           0.
     18,  -47.7370491,  -5.01736641,           0.
     19,         -48.,           0.,           0.
     20,  -47.7370491,   5.01736641,           0.
** ... 8014 like lines cut
*Element, type=C3D8R
   1,    5,    1,   62,  252,  689,   66,  554, 3158
   2,  520,  254,  253,  479, 3426, 3160, 3159, 3385
   3,  275,  276,  253,  254, 3181, 3182, 3159, 3160
   4,  525,  262,  279,  274, 3431, 3168, 3185, 3180
   5,  281,  298,  299,  280, 3187, 3204, 3205, 3186
   6,  297,  289,  288,  298, 3203, 3195, 3194, 3204
   7,  290,  309,  308,  289, 3196, 3215, 3214, 3195
   8,  526,  310,  319,  528, 3432, 3216, 3225, 3434
   9,  320,  321,  356,  348, 3226, 3227, 3262, 3254
  10,   49,   48,  357,  291,  563,  564, 3263, 3197
  11,  402,  415,  436,  416, 3308, 3321, 3342, 3322
  12,  398,  399,  418,  408, 3304, 3305, 3324, 3314
  13,  399,  398,  381,  382, 3305, 3304, 3287, 3288
  14,  537,  396,  397,  407, 3443, 3302, 3303, 3313
  15,  406,  395,  396,  537, 3312, 3301, 3302, 3443
  16,  538,  395,  405,  394, 3444, 3301, 3311, 3300
  17,  405,  404,  393,  394, 3311, 3310, 3299, 3300
  18,  404,  403,  392,  393, 3310, 3309, 3298, 3299
  19,   26,   25,  493,  502,  692,  675, 3399, 3408
  20,  426,  500,  502,  409, 3332, 3406, 3408, 3315
** ... 6665 like lines cut
*Nset, nset=Set-1, generate
    1,  8034,     1
*Elset, elset=Set-1, generate
    1,  6685,     1
*Nset, nset=fix
    3,    4,   71,   72,   73,   74,   75,   76,   77,   78,   79,   80,   81,   82,   83,   84
   85,   86,   87,   88,   89,   90,   91,   92,   93,   94,   95,   96,   97,   98,   99,  100
  101,  102,  103,  104,  105,  106,  107,  108,  109,  110,  111,  112,  113,  114,  115,  116
  117,  118,  119,  120,  121,  122,  123,  124,  125,  126,  127,  128,  158,  159,  160,  161
  162,  163,  164,  165,  166,  167,  168,  169,  170,  171,  172,  173,  174,  175,  176,  177
  178,  179,  180,  181,  182,  183,  184,  185,  186,  216,  217,  218,  219,  220,  221,  222
  223,  224,  225,  226,  227,  228,  229,  230,  231,  232,  233,  234,  235,  236,  237,  238
  239,  240,  241,  242,  243,  244,  786,  787,  788,  789,  790,  791,  792,  793,  794,  795
  796,  797,  798,  799,  800,  801,  802,  803,  804,  805,  806,  807,  808,  809,  810,  811
  812,  813,  814,  815,  816,  817,  818,  819,  820,  821,  822,  823,  824,  825,  826,  827
  828,  829,  830,  831,  832,  833,  834,  835,  836,  837,  838,  839,  840,  841,  842,  843
  844,  845,  846,  847,  848,  849,  850,  851,  852,  853,  854,  855,  856,  857,  858,  859
  860,  861,  862,  863,  864,  865,  866,  867,  868,  869,  870,  871,  872,  873,  874,  875
  876,  877,  878,  879,  880,  881,  882,  883,  884,  885,  886,  887,  888,  889,  890,  891
  892,  893,  894,  895,  896,  897,  898,  899,  900,  901,  902,  903,  904,  905,  906,  907
  908,  909,  910,  911,  912,  913,  914,  915,  916,  917,  918,  919,  920,  921,  922,  923
  924,  925,  926,  927,  928,  929,  930,  931,  932,  933,  934,  935,  936,  937,  938,  939
  940,  941,  942,  943,  944,  945,  946,  947,  948,  949,  950,  951,  952,  953,  954,  955
  956,  957,  958,  959,  960,  961,  962,  963,  964,  965,  966,  967,  968,  969,  970,  971
  972,  973,  974,  975,  976,  977,  978,  979,  980,  981,  982,  983,  984,  985,  986,  987
** ... 64 like lines cut
*Elset, elset=fix
 1353, 1354, 1355, 1356, 1357, 1358, 1359, 1360, 1361, 1362, 1363, 1364, 1365, 1366, 1367, 1368
 1369, 1370, 1371, 1372, 1373, 1374, 1375, 1376, 1377, 1378, 1379, 1380, 1381, 1382, 1383, 1384
 1385, 1386, 1387, 1388, 1389, 1390, 1391, 1392, 1393, 1394, 1395, 1396, 1397, 1398, 1399, 1400
 1401, 1402, 1403, 1404, 1405, 1406, 1407, 1408, 1409, 1410, 1411, 1412, 1413, 1414, 1415, 1416
 1417, 1418, 1419, 1420, 1421, 1422, 1423, 1424, 1425, 1426, 1427, 1428, 1429, 1430, 1431, 1432
 1433, 1434, 1435, 1436, 1437, 1438, 1439, 1440, 1441, 1442, 1443, 1444, 1445, 1446, 1447, 1448
 1449, 1450, 1451, 1452, 1453, 1454, 1455, 1456, 1457, 1458, 1459, 1460, 1461, 1462, 1463, 1464
 1465, 1466, 1467, 1468, 1469, 1470, 1471, 1472, 1473, 1474, 1475, 1476, 1477, 1478, 1479, 1480
 1481, 1482, 1483, 1484, 1485, 1486, 1487, 1488, 1489, 1490, 1491, 1492, 1493, 1494, 1495, 1496
 1497, 1498, 1499, 1500, 1501, 1502, 1503, 1504, 1505, 1506, 1507, 1508, 1509, 1510, 1511, 1512
 1513, 1514, 1515, 1516, 1517, 1518, 1519, 1520, 1521, 1522, 1523, 1524, 1525, 1526, 1527, 1528
 1529, 1530, 1531, 1532, 1533, 1534, 1535, 1536, 1537, 1538, 1539, 1540, 1541, 1542, 1543, 1544
 1545, 1546, 1547, 1548, 1549, 1550, 1551, 1552, 1553, 1554, 1555, 1556, 1557, 1558, 1559, 1560
 1561, 1562, 1563, 1564, 1565, 1566, 1567, 1568, 1569, 1570, 1571, 1572, 1573, 1574, 1575, 1576
 1577, 1578, 1579, 1580, 1581, 1582, 1583, 1584, 1585, 1586, 1587, 1588, 1589, 1590, 1591, 1592
 1593, 1594, 1595, 1596, 1597, 1598, 1599, 1600, 1601, 1602, 1603, 1604, 1605, 1606, 1607, 1608
 1609, 1610, 1611, 1612, 1613, 1614, 1615, 1616, 1617, 1618, 1619, 1620, 1621, 1622, 1623, 1624
 1625, 1626, 1627, 1628, 1629, 1630, 1631, 1632, 1633, 1634, 1635, 1636, 1637, 1638, 1639, 1640
 1641, 1642, 1643, 1644, 1645, 1646, 1647, 1648, 1649, 1650, 1651, 1652, 1653, 1654, 1655, 1656
 1657, 1658, 1659, 1660, 1661, 1662, 1663, 1664, 1665, 1666, 1667, 1668, 1669, 1670, 1671, 1672
** ... 64 like lines cut
*Elset, elset=_master_S1, internal
    1,    2,    3,    4,    5,    6,    7,    8,    9,   10,   11,   12,   13,   14,   15,   16
   17,   18,   19,   20,   21,   22,   23,   24,   25,   26,   27,   28,   29,   30,   31,   32
   33,   34,   35,   36,   37,   38,   39,   40,   41,   42,   43,   44,   45,   46,   47,   48
   49,   50,   51,   52,   53,   54,   55,   56,   57,   58,   59,   60,   61,   62,   63,   64
   65,   66,   67,   68,   69,   70,   71,   72,   73,   74,   75,   76,   77,   78,   79,   80
   81,   82,   83,   84,   85,   86,   87,   88,   89,   90,   91,   92,   93,   94,   95,   96
   97,   98,   99,  100,  101,  102,  103,  104,  105,  106,  107,  108,  109,  110,  111,  112
  113,  114,  115,  116,  117,  118,  119,  120,  121,  122,  123,  124,  125,  126,  127,  128
  129,  130,  131,  132,  133,  134,  135,  136,  137,  138,  139,  140,  141,  142,  143,  144
  145,  146,  147,  148,  149,  150,  151,  152,  153,  154,  155,  156,  157,  158,  159,  160
  161,  162,  163,  164,  165,  166,  167,  168,  169,  170,  171,  172,  173,  174,  175,  176
  177,  178,  179,  180,  181,  182,  183,  184,  185,  186,  187,  188,  189,  190,  191,  192
  193,  194,  195,  196,  197,  198,  199,  200,  201,  202,  203,  204,  205,  206,  207,  208
  209,  210,  211,  212,  213,  214,  215,  216,  217,  218,  219,  220,  221,  222,  223,  224
  225,  226,  227,  228,  229,  230,  231,  232,  233,  234,  235,  236,  237,  238,  239,  240
  241,  242,  243,  244,  245,  246,  247,  248,  249,  250,  251,  252,  253,  254,  255,  256
  257,  258,  259,  260,  261,  262,  263,  264,  265,  266,  267,  268,  269,  270,  271,  272
  273,  274,  275,  276,  277,  278,  279,  280,  281,  282,  283,  284,  285,  286,  287,  288
  289,  290,  291,  292,  293,  294,  295,  296,  297,  298,  299,  300,  301,  302,  303,  304
  305,  306,  307,  308,  309,  310,  311,  312,  313,  314,  315,  316,  317,  318,  319,  320
** ... 64 like lines cut
*Surface, type=ELEMENT, name=master
_master_S1, S1
** Section: Section-1
*Solid Section, elset=Set-1, material=Material-1
,
*End Part
**  
*Part, name=Part-2
*Node
      1,           0.,         -50.,           0.
      2,           0.,          50.,           0.
      3,           0.,         -48.,           0.
      4,           0.,          48.,           0.
      5,  -1.49577332,   -49.977623,           0.
      6,  -2.99020767,  -49.9105072,           0.
      7,  -4.48196554,  -49.7987137,           0.
      8,   -5.9697113,  -49.6423454,           0.
      9,  -7.45211315,  -49.4415398,           0.
     10,    -8.927845,  -49.1964798,           0.
     11,  -10.3955841,  -48.9073792,           0.
     12,  -11.8540192,   -48.574501,           0.
     13,  -13.3018427,   -48.198143,           0.
     14,  -14.7377586,  -47.7786407,           0.
     15,  -16.1604824,  -47.3163681,           0.
     16,  -17.5687408,  -46.8117447,           0.
     17,  -18.9612732,  -46.2652168,           0.
     18,   -20.336832,  -45.6772728,           0.
     19,  -21.6941872,  -45.0484428,           0.
     20,  -23.0321217,  -44.3792877,           0.
** ... 32812 like lines cut
*Element, type=C3D8R
   1,  891,    5,    1,  212, 4799,  317,    3,  316
   2,  907,  876,  891,  892, 4815, 4784, 4799, 4800
   3,  997,  998,  907,  908, 4905, 4906, 4815, 4816
   4,  934,  997,  996,  935, 4842, 4905, 4904, 4843
   5, 1004, 1003,  935,  936, 4912, 4911, 4843, 4844
   6, 1047, 1046, 1004, 1005, 4955, 4954, 4912, 4913
   7, 1128, 1129, 1047, 1048, 5036, 5037, 4955, 4956
   8, 1076, 1128, 1127, 1077, 4984, 5036, 5035, 4985
   9, 1141, 1140, 1077, 1078, 5049, 5048, 4985, 4986
  10, 1079, 1080, 1142, 4331, 4987, 4988, 5050, 8239
  11, 1173, 1172, 1218, 1217, 5081, 5080, 5126, 5125
  12, 1237, 1236, 1173, 1174, 5145, 5144, 5081, 5082
  13, 1307, 1308, 1238, 1239, 5215, 5216, 5146, 5147
  14, 4446, 1268, 4406, 1306, 8354, 5176, 8314, 5214
  15, 1269, 1305, 1270, 4425, 5177, 5213, 5178, 8333
  16, 4489, 1377, 1334, 1335, 8397, 5285, 5242, 5243
  17, 1271, 4501, 4489, 1335, 5179, 8409, 8397, 5243
  18, 1404, 1403, 1436, 1435, 5312, 5311, 5344, 5343
  19, 4528, 1404, 1405, 1467, 8436, 5312, 5313, 5375
  20, 4492, 1523, 1468, 1469, 8400, 5431, 5376, 5377
** ... 16394 like lines cut
*Nset, nset=Set-1, generate
     1,  32832,      1
*Elset, elset=Set-1, generate
     1,  16414,      1
*Elset, elset=_free_S1, internal, generate
     1,  16414,      1
*Surface, type=ELEMENT, name=free
_free_S1, S1
*Elset, elset=_slave_S2, internal, generate
     1,  16414,      1
*Surface, type=ELEMENT, name=slave
_slave_S2, S2
** Section: Section-2
*Solid Section, elset=Set-1, material=Material-2
,
*End Part
**  
**
** ASSEMBLY
**
*Assembly, name=Assembly
**  
*Instance, name=Part-1-1, part=Part-1
*End Instance
**  
*Instance, name=Part-2-1, part=Part-2
*End Instance
**  
** Constraint: Constraint-1
*Tie, name=Constraint-1, adjust=yes
Part-2-1.slave, Part-1-1.master
*End Assembly
** 
** MATERIALS
** 
*Material, name=Material-1
*Density
 8e-09,
*Hyperelastic, neo hooke
1., 0.03
*Material, name=Material-2
*Density
 8e-09,
*Expansion
 0.01,
*Hyperelastic, neo hooke
2., 0.03
** 
** INTERACTION PROPERTIES
** 
*Surface Interaction, name=IntProp-1
** 
** BOUNDARY CONDITIONS
** 
** Name: BC-1 Type: Symmetry/Antisymmetry/Encastre
*Boundary
Part-1-1.fix, ENCASTRE
** ----------------------------------------------------------------
** 
** STEP: Step-1
** 
*Step, name=Step-1, nlgeom=YES
*Dynamic, Explicit
, 0.05
*Bulk Viscosity
0.06, 1.2
** 
** PREDEFINED FIELDS
** 
** Name: Predefined Field-1   Type: Temperature
*Temperature
Part-2-1.Set-1, 300.
** 
** INTERACTIONS
** 
** Interaction: Int-1
*Contact Pair, interaction=IntProp-1, mechanical constraint=PENALTY, cpset=Int-1
Part-2-1.free,
** 
** OUTPUT REQUESTS
** 
*Restart, write, number interval=1, time marks=NO
** 
** FIELD OUTPUT: F-Output-1
** 
*Output, field, variable=PRESELECT
** 
** HISTORY OUTPUT: H-Output-1
** 
*Output, history, variable=PRESELECT
*End Step
